fluorene
                    3D
 Schrodinger Suite 2021-3.
 23 25  0  0  1  0            999 V2000
    3.4574    0.0992    0.3175 C   0  0  0  0  0  0
    3.0100   -1.2265    0.3206 C   0  0  0  0  0  0
    1.6450   -1.5161    0.2967 C   0  0  0  0  0  0
    0.7341   -0.4589    0.2695 C   0  0  0  0  0  0
   -0.7327   -0.4586    0.2410 C   0  0  0  0  0  0
   -1.6439   -1.5158    0.2327 C   0  0  0  0  0  0
   -3.0087   -1.2258    0.2035 C   0  0  0  0  0  0
   -3.4557    0.0999    0.1828 C   0  0  0  0  0  0
   -2.5429    1.1607    0.1910 C   0  0  0  0  0  0
   -1.1829    0.8770    0.2201 C   0  0  0  0  0  0
    0.0013    1.8229    0.2349 C   0  0  0  0  0  0
    1.1849    0.8765    0.2664 C   0  0  0  0  0  0
    2.5449    1.1596    0.2903 C   0  0  0  0  0  0
    4.5236    0.3057    0.3363 H   0  0  0  0  0  0
    3.7329   -2.0371    0.3418 H   0  0  0  0  0  0
    1.2991   -2.5461    0.2992 H   0  0  0  0  0  0
   -1.2982   -2.5458    0.2487 H   0  0  0  0  0  0
   -3.7318   -2.0365    0.1967 H   0  0  0  0  0  0
   -4.5218    0.3061    0.1601 H   0  0  0  0  0  0
   -2.8952    2.1886    0.1748 H   0  0  0  0  0  0
   -0.0156    2.4864    1.1093 H   0  0  0  0  0  0
    0.0188    2.4713   -0.6508 H   0  0  0  0  0  0
    2.8978    2.1875    0.2880 H   0  0  0  0  0  0
  1  2  2  0  0  0
  1 13  1  0  0  0
  1 14  1  0  0  0
  2  3  1  0  0  0
  2 15  1  0  0  0
  3  4  2  0  0  0
  3 16  1  0  0  0
  4  5  1  0  0  0
  4 12  1  0  0  0
  5  6  2  0  0  0
  5 10  1  0  0  0
  6  7  1  0  0  0
  6 17  1  0  0  0
  7  8  2  0  0  0
  7 18  1  0  0  0
  8  9  1  0  0  0
  8 19  1  0  0  0
  9 10  2  0  0  0
  9 20  1  0  0  0
 10 11  1  0  0  0
 11 12  1  0  0  0
 11 21  1  0  0  0
 11 22  1  0  0  0
 12 13  2  0  0  0
 13 23  1  0  0  0
M  END
> <s_m_entry_id>
19

> <s_m_entry_name>
polyaromatic.1

> <Name>
fluorene

> <s_m_Source_Path>
/Users/pwalters/modsource/python/rdkit/symmetry_sigma

> <s_m_Source_File>
polyaromatic.sdf

> <i_m_Source_File_Index>
1

> <i_m_Spin_multiplicity>
1

> <s_j_Task>
Optimization

> <s_j_Jaguar_input_file>
/Users/pwalters/jag_fluorene_opt_B3LYP-D3_6-31Gss_2/jag_fluorene_opt_B3LYP-D3_6-31Gss_2.in

> <s_j_Jaguar_restart_input_file>
/Users/pwalters/jag_fluorene_opt_B3LYP-D3_6-31Gss_2/jag_fluorene_opt_B3LYP-D3_6-31Gss_2.01.in

> <s_j_Jaguar_restart_mae_file>
/Users/pwalters/jag_fluorene_opt_B3LYP-D3_6-31Gss_2/jag_fluorene_opt_B3LYP-D3_6-31Gss_2.01.mae

> <s_j_Jaguar_output_file>
/Users/pwalters/jag_fluorene_opt_B3LYP-D3_6-31Gss_2/jag_fluorene_opt_B3LYP-D3_6-31Gss_2.out

> <s_j_Jaguar_log_file>
/Users/pwalters/jag_fluorene_opt_B3LYP-D3_6-31Gss_2/jag_fluorene_opt_B3LYP-D3_6-31Gss_2.log

> <s_j_Jaguar_mae_file>
/Users/pwalters/jag_fluorene_opt_B3LYP-D3_6-31Gss_2/jag_fluorene_opt_B3LYP-D3_6-31Gss_2.mae

> <s_j_QM_Method>
DFT(b3lyp-d3)

> <s_j_QM_Basis>
6-31g**

> <i_j_Number_of_canonical_orbitals>
243

> <i_j_Geometry_convergence_category>
3

> <r_j_Gas_Phase_Energy>
-501.454440057038

> <r_j_Final_Energy>
-501.454440057038

> <r_j_HOMO>
-0.211722514498134

> <r_j_LUMO>
-0.026757010755553

> <s_m_job_name>
jag_fluorene_opt_B3LYP-D3_6-31Gss_2

$$$$
dibenzofuran
                    3D
 Schrodinger Suite 2021-3.
 21 23  0  0  1  0            999 V2000
   -0.0001    1.6526    0.0294 O   0  0  0  0  0  0
    1.0987    0.8248    0.0943 C   0  0  0  0  0  0
    2.4189    1.2485    0.0611 C   0  0  0  0  0  0
    3.3971    0.2554    0.1388 C   0  0  0  0  0  0
    3.0541   -1.1024    0.2451 C   0  0  0  0  0  0
    1.7208   -1.5063    0.2768 C   0  0  0  0  0  0
    0.7242   -0.5283    0.2003 C   0  0  0  0  0  0
   -0.7259   -0.5278    0.2001 C   0  0  0  0  0  0
   -1.0994    0.8256    0.0941 C   0  0  0  0  0  0
   -2.4193    1.2502    0.0608 C   0  0  0  0  0  0
   -3.3982    0.2578    0.1384 C   0  0  0  0  0  0
   -3.0562   -1.1002    0.2446 C   0  0  0  0  0  0
   -1.7232   -1.5051    0.2765 C   0  0  0  0  0  0
    2.6673    2.3006   -0.0213 H   0  0  0  0  0  0
    4.4442    0.5415    0.1164 H   0  0  0  0  0  0
    3.8417   -1.8474    0.3034 H   0  0  0  0  0  0
    1.4599   -2.5571    0.3590 H   0  0  0  0  0  0
   -2.6670    2.3024   -0.0215 H   0  0  0  0  0  0
   -4.4452    0.5446    0.1158 H   0  0  0  0  0  0
   -3.8443   -1.8447    0.3027 H   0  0  0  0  0  0
   -1.4630   -2.5561    0.3586 H   0  0  0  0  0  0
  1  2  1  0  0  0
  1  9  1  0  0  0
  2  3  2  0  0  0
  2  7  1  0  0  0
  3  4  1  0  0  0
  3 14  1  0  0  0
  4  5  2  0  0  0
  4 15  1  0  0  0
  5  6  1  0  0  0
  5 16  1  0  0  0
  6  7  2  0  0  0
  6 17  1  0  0  0
  7  8  1  0  0  0
  8  9  2  0  0  0
  8 13  1  0  0  0
  9 10  1  0  0  0
 10 11  2  0  0  0
 10 18  1  0  0  0
 11 12  1  0  0  0
 11 19  1  0  0  0
 12 13  2  0  0  0
 12 20  1  0  0  0
 13 21  1  0  0  0
M  END
> <s_m_entry_id>
20

> <s_m_entry_name>
polyaromatic.3

> <Name>
dibenzofuran

> <s_m_Source_Path>
/Users/pwalters/modsource/python/rdkit/symmetry_sigma

> <s_m_Source_File>
polyaromatic.sdf

> <i_m_Source_File_Index>
3

> <i_m_Spin_multiplicity>
1

> <s_j_Task>
Optimization

> <s_j_Jaguar_input_file>
/Users/pwalters/jag_dibenzofuran_opt_B3LYP-D3_6-31Gss/jag_dibenzofuran_opt_B3LYP-D3_6-31Gss.in

> <s_j_Jaguar_restart_input_file>
/Users/pwalters/jag_dibenzofuran_opt_B3LYP-D3_6-31Gss/jag_dibenzofuran_opt_B3LYP-D3_6-31Gss.01.in

> <s_j_Jaguar_restart_mae_file>
/Users/pwalters/jag_dibenzofuran_opt_B3LYP-D3_6-31Gss/jag_dibenzofuran_opt_B3LYP-D3_6-31Gss.01.mae

> <s_j_Jaguar_output_file>
/Users/pwalters/jag_dibenzofuran_opt_B3LYP-D3_6-31Gss/jag_dibenzofuran_opt_B3LYP-D3_6-31Gss.out

> <s_j_Jaguar_log_file>
/Users/pwalters/jag_dibenzofuran_opt_B3LYP-D3_6-31Gss/jag_dibenzofuran_opt_B3LYP-D3_6-31Gss.log

> <s_j_Jaguar_mae_file>
/Users/pwalters/jag_dibenzofuran_opt_B3LYP-D3_6-31Gss/jag_dibenzofuran_opt_B3LYP-D3_6-31Gss.mae

> <s_j_QM_Method>
DFT(b3lyp-d3)

> <s_j_QM_Basis>
6-31g**

> <i_j_Number_of_canonical_orbitals>
233

> <i_j_Geometry_convergence_category>
0

> <r_j_Gas_Phase_Energy>
-537.355172063127

> <r_j_Final_Energy>
-537.355172063127

> <r_j_HOMO>
-0.22096419923114

> <r_j_LUMO>
-0.0344990788317076

> <s_m_job_name>
jag_dibenzofuran_opt_B3LYP-D3_6-31Gss

$$$$
carbazole
                    3D
 Schrodinger Suite 2021-3.
 22 24  0  0  1  0            999 V2000
    3.0452   -1.1552    0.2545 C   0  0  0  0  0  0
    3.4341    0.1956    0.2433 C   0  0  0  0  0  0
    2.4922    1.2214    0.2259 C   0  0  0  0  0  0
    1.1439    0.8608    0.2198 C   0  0  0  0  0  0
    0.7309   -0.4977    0.2308 C   0  0  0  0  0  0
    1.6988   -1.5079    0.2483 C   0  0  0  0  0  0
   -0.7171   -0.4929    0.2202 C   0  0  0  0  0  0
   -1.6915   -1.4969    0.2236 C   0  0  0  0  0  0
   -3.0357   -1.1359    0.2102 C   0  0  0  0  0  0
   -3.4160    0.2173    0.1934 C   0  0  0  0  0  0
   -2.4675    1.2371    0.1896 C   0  0  0  0  0  0
   -1.1215    0.8681    0.2032 C   0  0  0  0  0  0
    0.0138    1.6631    0.2032 N   0  0  0  0  0  0
    3.8057   -1.9299    0.2681 H   0  0  0  0  0  0
    4.4907    0.4471    0.2484 H   0  0  0  0  0  0
    2.7959    2.2641    0.2174 H   0  0  0  0  0  0
    1.4002   -2.5523    0.2571 H   0  0  0  0  0  0
   -1.3997   -2.5432    0.2365 H   0  0  0  0  0  0
   -3.8011   -1.9059    0.2126 H   0  0  0  0  0  0
   -4.4710    0.4753    0.1831 H   0  0  0  0  0  0
   -2.7645    2.2816    0.1767 H   0  0  0  0  0  0
    0.0171    2.6692    0.1929 H   0  0  0  0  0  0
  1  2  2  0  0  0
  1  6  1  0  0  0
  1 14  1  0  0  0
  2  3  1  0  0  0
  2 15  1  0  0  0
  3  4  2  0  0  0
  3 16  1  0  0  0
  4  5  1  0  0  0
  4 13  1  0  0  0
  5  6  2  0  0  0
  5  7  1  0  0  0
  6 17  1  0  0  0
  7  8  2  0  0  0
  7 12  1  0  0  0
  8  9  1  0  0  0
  8 18  1  0  0  0
  9 10  2  0  0  0
  9 19  1  0  0  0
 10 11  1  0  0  0
 10 20  1  0  0  0
 11 12  2  0  0  0
 11 21  1  0  0  0
 12 13  1  0  0  0
 13 22  1  0  0  0
M  END
> <s_m_entry_id>
21

> <s_m_entry_name>
polyaromatic.2

> <Name>
carbazole

> <s_m_Source_Path>
/Users/pwalters/modsource/python/rdkit/symmetry_sigma

> <s_m_Source_File>
polyaromatic.sdf

> <i_m_Source_File_Index>
2

> <i_m_Spin_multiplicity>
1

> <s_j_Task>
Optimization

> <s_j_Jaguar_input_file>
/Users/pwalters/jag_carbazole_opt_B3LYP-D3_6-31Gss_3/jag_carbazole_opt_B3LYP-D3_6-31Gss_3.in

> <s_j_Jaguar_restart_input_file>
/Users/pwalters/jag_carbazole_opt_B3LYP-D3_6-31Gss_3/jag_carbazole_opt_B3LYP-D3_6-31Gss_3.01.in

> <s_j_Jaguar_restart_mae_file>
/Users/pwalters/jag_carbazole_opt_B3LYP-D3_6-31Gss_3/jag_carbazole_opt_B3LYP-D3_6-31Gss_3.01.mae

> <s_j_Jaguar_output_file>
/Users/pwalters/jag_carbazole_opt_B3LYP-D3_6-31Gss_3/jag_carbazole_opt_B3LYP-D3_6-31Gss_3.out

> <s_j_Jaguar_log_file>
/Users/pwalters/jag_carbazole_opt_B3LYP-D3_6-31Gss_3/jag_carbazole_opt_B3LYP-D3_6-31Gss_3.log

> <s_j_Jaguar_mae_file>
/Users/pwalters/jag_carbazole_opt_B3LYP-D3_6-31Gss_3/jag_carbazole_opt_B3LYP-D3_6-31Gss_3.mae

> <s_j_QM_Method>
DFT(b3lyp-d3)

> <s_j_QM_Basis>
6-31g**

> <i_j_Number_of_canonical_orbitals>
238

> <i_j_Geometry_convergence_category>
3

> <r_j_Gas_Phase_Energy>
-517.501675959614

> <r_j_Final_Energy>
-517.501675959614

> <r_j_HOMO>
-0.200577756981152

> <r_j_LUMO>
-0.0243911119201624

> <s_m_job_name>
jag_carbazole_opt_B3LYP-D3_6-31Gss_3

$$$$
dibenzothiophene
                    3D
 Schrodinger Suite 2021-3.
 21 23  0  0  1  0            999 V2000
    2.9759   -1.2066    0.2710 C   0  0  0  0  0  0
    3.4884    0.0990    0.2984 C   0  0  0  0  0  0
    2.6355    1.1996    0.2954 C   0  0  0  0  0  0
    1.2581    0.9756    0.2644 C   0  0  0  0  0  0
    0.7248   -0.3324    0.2364 C   0  0  0  0  0  0
    1.6038   -1.4247    0.2402 C   0  0  0  0  0  0
   -0.7278   -0.3329    0.2068 C   0  0  0  0  0  0
   -1.6053   -1.4258    0.1746 C   0  0  0  0  0  0
   -2.9777   -1.2093    0.1494 C   0  0  0  0  0  0
   -3.4921    0.0957    0.1560 C   0  0  0  0  0  0
   -2.6407    1.1971    0.1878 C   0  0  0  0  0  0
   -1.2629    0.9745    0.2130 C   0  0  0  0  0  0
   -0.0033    2.2176    0.2549 S   0  0  0  0  0  0
    3.6564   -2.0527    0.2738 H   0  0  0  0  0  0
    4.5626    0.2564    0.3224 H   0  0  0  0  0  0
    3.0336    2.2091    0.3167 H   0  0  0  0  0  0
    1.2099   -2.4367    0.2191 H   0  0  0  0  0  0
   -1.2101   -2.4372    0.1695 H   0  0  0  0  0  0
   -3.6566   -2.0563    0.1245 H   0  0  0  0  0  0
   -4.5665    0.2520    0.1361 H   0  0  0  0  0  0
   -3.0403    2.2061    0.1929 H   0  0  0  0  0  0
  1  2  2  0  0  0
  1  6  1  0  0  0
  1 14  1  0  0  0
  2  3  1  0  0  0
  2 15  1  0  0  0
  3  4  2  0  0  0
  3 16  1  0  0  0
  4  5  1  0  0  0
  4 13  1  0  0  0
  5  6  2  0  0  0
  5  7  1  0  0  0
  6 17  1  0  0  0
  7  8  2  0  0  0
  7 12  1  0  0  0
  8  9  1  0  0  0
  8 18  1  0  0  0
  9 10  2  0  0  0
  9 19  1  0  0  0
 10 11  1  0  0  0
 10 20  1  0  0  0
 11 12  2  0  0  0
 11 21  1  0  0  0
 12 13  1  0  0  0
M  END
> <s_m_entry_id>
22

> <s_m_entry_name>
polyaromatic.4

> <Name>
dibenzothiophene

> <s_m_Source_Path>
/Users/pwalters/modsource/python/rdkit/symmetry_sigma

> <s_m_Source_File>
polyaromatic.sdf

> <i_m_Source_File_Index>
4

> <i_m_Spin_multiplicity>
1

> <s_j_Task>
Optimization

> <s_j_Jaguar_input_file>
/Users/pwalters/jag_dibenzothiophene_opt_B3LYP-D3_6-31Gss/jag_dibenzothiophene_opt_B3LYP-D3_6-31Gss.in

> <s_j_Jaguar_restart_input_file>
/Users/pwalters/jag_dibenzothiophene_opt_B3LYP-D3_6-31Gss/jag_dibenzothiophene_opt_B3LYP-D3_6-31Gss.01.in

> <s_j_Jaguar_restart_mae_file>
/Users/pwalters/jag_dibenzothiophene_opt_B3LYP-D3_6-31Gss/jag_dibenzothiophene_opt_B3LYP-D3_6-31Gss.01.mae

> <s_j_Jaguar_output_file>
/Users/pwalters/jag_dibenzothiophene_opt_B3LYP-D3_6-31Gss/jag_dibenzothiophene_opt_B3LYP-D3_6-31Gss.out

> <s_j_Jaguar_log_file>
/Users/pwalters/jag_dibenzothiophene_opt_B3LYP-D3_6-31Gss/jag_dibenzothiophene_opt_B3LYP-D3_6-31Gss.log

> <s_j_Jaguar_mae_file>
/Users/pwalters/jag_dibenzothiophene_opt_B3LYP-D3_6-31Gss/jag_dibenzothiophene_opt_B3LYP-D3_6-31Gss.mae

> <s_j_QM_Method>
DFT(b3lyp-d3)

> <s_j_QM_Basis>
6-31g**

> <i_j_Number_of_canonical_orbitals>
237

> <i_j_Geometry_convergence_category>
3

> <r_j_Gas_Phase_Energy>
-860.335060980611

> <r_j_Final_Energy>
-860.335060980611

> <r_j_HOMO>
-0.21437608642959

> <r_j_LUMO>
-0.0354591910931435

> <s_m_job_name>
jag_dibenzothiophene_opt_B3LYP-D3_6-31Gss

$$$$
diphenylmethane
                    3D
 Schrodinger Suite 2021-3.
 25 26  0  0  1  0            999 V2000
    1.8601    1.5978    0.9822 C   0  0  0  0  0  0
    1.2261    0.7361    0.0825 C   0  0  0  0  0  0
    0.4847    1.2920   -0.9692 C   0  0  0  0  0  0
    0.3863    2.6726   -1.1201 C   0  0  0  0  0  0
    1.0252    3.5250   -0.2160 C   0  0  0  0  0  0
    1.7617    2.9836    0.8360 C   0  0  0  0  0  0
    1.3119   -0.7725    0.2400 C   0  0  0  0  0  0
   -0.0520   -1.4288    0.3646 C   0  0  0  0  0  0
   -0.9132   -1.0665    1.4095 C   0  0  0  0  0  0
   -2.1737   -1.6459    1.5277 C   0  0  0  0  0  0
   -2.5992   -2.5971    0.5968 C   0  0  0  0  0  0
   -1.7532   -2.9619   -0.4488 C   0  0  0  0  0  0
   -0.4881   -2.3801   -0.5619 C   0  0  0  0  0  0
    2.4346    1.1817    1.8064 H   0  0  0  0  0  0
   -0.0296    0.6313   -1.6623 H   0  0  0  0  0  0
   -0.1936    3.0863   -1.9405 H   0  0  0  0  0  0
    0.9446    4.6022   -0.3302 H   0  0  0  0  0  0
    2.2586    3.6379    1.5469 H   0  0  0  0  0  0
    1.9167   -1.0085    1.1239 H   0  0  0  0  0  0
    1.8415   -1.2025   -0.6189 H   0  0  0  0  0  0
   -0.5922   -0.3126    2.1238 H   0  0  0  0  0  0
   -2.8287   -1.3527    2.3436 H   0  0  0  0  0  0
   -3.5843   -3.0462    0.6858 H   0  0  0  0  0  0
   -2.0762   -3.6977   -1.1800 H   0  0  0  0  0  0
    0.1667   -2.6677   -1.3810 H   0  0  0  0  0  0
  1  2  2  0  0  0
  1  6  1  0  0  0
  1 14  1  0  0  0
  2  3  1  0  0  0
  2  7  1  0  0  0
  3  4  2  0  0  0
  3 15  1  0  0  0
  4  5  1  0  0  0
  4 16  1  0  0  0
  5  6  2  0  0  0
  5 17  1  0  0  0
  6 18  1  0  0  0
  7  8  1  0  0  0
  7 19  1  0  0  0
  7 20  1  0  0  0
  8  9  2  0  0  0
  8 13  1  0  0  0
  9 10  1  0  0  0
  9 21  1  0  0  0
 10 11  2  0  0  0
 10 22  1  0  0  0
 11 12  1  0  0  0
 11 23  1  0  0  0
 12 13  2  0  0  0
 12 24  1  0  0  0
 13 25  1  0  0  0
M  END
> <s_m_entry_id>
23

> <s_m_entry_name>
polyaromatic.5

> <Name>
diphenylmethane

> <s_m_Source_Path>
/Users/pwalters/modsource/python/rdkit/symmetry_sigma

> <s_m_Source_File>
polyaromatic.sdf

> <i_m_Source_File_Index>
5

> <i_m_Spin_multiplicity>
1

> <s_j_Task>
Optimization

> <s_j_Jaguar_input_file>
/Users/pwalters/jag_diphenylmethane_opt_B3LYP-D3_6-31Gss/jag_diphenylmethane_opt_B3LYP-D3_6-31Gss.in

> <s_j_Jaguar_restart_input_file>
/Users/pwalters/jag_diphenylmethane_opt_B3LYP-D3_6-31Gss/jag_diphenylmethane_opt_B3LYP-D3_6-31Gss.01.in

> <s_j_Jaguar_restart_mae_file>
/Users/pwalters/jag_diphenylmethane_opt_B3LYP-D3_6-31Gss/jag_diphenylmethane_opt_B3LYP-D3_6-31Gss.01.mae

> <s_j_Jaguar_output_file>
/Users/pwalters/jag_diphenylmethane_opt_B3LYP-D3_6-31Gss/jag_diphenylmethane_opt_B3LYP-D3_6-31Gss.out

> <s_j_Jaguar_log_file>
/Users/pwalters/jag_diphenylmethane_opt_B3LYP-D3_6-31Gss/jag_diphenylmethane_opt_B3LYP-D3_6-31Gss.log

> <s_j_Jaguar_mae_file>
/Users/pwalters/jag_diphenylmethane_opt_B3LYP-D3_6-31Gss/jag_diphenylmethane_opt_B3LYP-D3_6-31Gss.mae

> <s_j_QM_Method>
DFT(b3lyp-d3)

> <s_j_QM_Basis>
6-31g**

> <i_j_Number_of_canonical_orbitals>
253

> <i_j_Geometry_convergence_category>
3

> <r_j_Gas_Phase_Energy>
-502.652093628433

> <r_j_Final_Energy>
-502.652093628433

> <r_j_HOMO>
-0.230275282034194

> <r_j_LUMO>
-0.0032861269946882

> <s_m_job_name>
jag_diphenylmethane_opt_B3LYP-D3_6-31Gss

$$$$
diphenylamine
                    3D
 Schrodinger Suite 2021-3.
 24 25  0  0  1  0            999 V2000
    1.4142    3.6349    0.4285 C   0  0  0  0  0  0
    2.4226    2.8148   -0.0806 C   0  0  0  0  0  0
    2.2337    1.4401   -0.1804 C   0  0  0  0  0  0
    1.0312    0.8499    0.2464 C   0  0  0  0  0  0
    0.0258    1.6752    0.7789 C   0  0  0  0  0  0
    0.2205    3.0521    0.8554 C   0  0  0  0  0  0
    0.9054   -0.5408    0.1692 N   0  0  0  0  0  0
   -0.2561   -1.3185    0.1150 C   0  0  0  0  0  0
   -1.4599   -0.8430   -0.4332 C   0  0  0  0  0  0
   -2.5767   -1.6728   -0.4908 C   0  0  0  0  0  0
   -2.5191   -2.9888   -0.0299 C   0  0  0  0  0  0
   -1.3185   -3.4700    0.4945 C   0  0  0  0  0  0
   -0.2010   -2.6450    0.5763 C   0  0  0  0  0  0
    1.5585    4.7086    0.4954 H   0  0  0  0  0  0
    3.3612    3.2479   -0.4148 H   0  0  0  0  0  0
    3.0160    0.8104   -0.5976 H   0  0  0  0  0  0
   -0.8928    1.2348    1.1488 H   0  0  0  0  0  0
   -0.5689    3.6733    1.2695 H   0  0  0  0  0  0
    1.7723   -1.0559    0.1799 H   0  0  0  0  0  0
   -1.5094    0.1647   -0.8293 H   0  0  0  0  0  0
   -3.4985   -1.2870   -0.9173 H   0  0  0  0  0  0
   -3.3933   -3.6299   -0.0826 H   0  0  0  0  0  0
   -1.2518   -4.4925    0.8554 H   0  0  0  0  0  0
    0.7247   -3.0203    1.0060 H   0  0  0  0  0  0
  1  2  2  0  0  0
  1  6  1  0  0  0
  1 14  1  0  0  0
  2  3  1  0  0  0
  2 15  1  0  0  0
  3  4  2  0  0  0
  3 16  1  0  0  0
  4  5  1  0  0  0
  4  7  1  0  0  0
  5  6  2  0  0  0
  5 17  1  0  0  0
  6 18  1  0  0  0
  7  8  1  0  0  0
  7 19  1  0  0  0
  8  9  2  0  0  0
  8 13  1  0  0  0
  9 10  1  0  0  0
  9 20  1  0  0  0
 10 11  2  0  0  0
 10 21  1  0  0  0
 11 12  1  0  0  0
 11 22  1  0  0  0
 12 13  2  0  0  0
 12 23  1  0  0  0
 13 24  1  0  0  0
M  END
> <s_m_entry_id>
24

> <s_m_entry_name>
polyaromatic.6

> <Name>
diphenylamine

> <s_m_Source_Path>
/Users/pwalters/modsource/python/rdkit/symmetry_sigma

> <s_m_Source_File>
polyaromatic.sdf

> <i_m_Source_File_Index>
6

> <i_m_Spin_multiplicity>
1

> <s_j_Task>
Optimization

> <s_j_Jaguar_input_file>
/Users/pwalters/jag_diphenylamine_opt_B3LYP-D3_6-31Gss/jag_diphenylamine_opt_B3LYP-D3_6-31Gss.in

> <s_j_Jaguar_restart_input_file>
/Users/pwalters/jag_diphenylamine_opt_B3LYP-D3_6-31Gss/jag_diphenylamine_opt_B3LYP-D3_6-31Gss.01.in

> <s_j_Jaguar_restart_mae_file>
/Users/pwalters/jag_diphenylamine_opt_B3LYP-D3_6-31Gss/jag_diphenylamine_opt_B3LYP-D3_6-31Gss.01.mae

> <s_j_Jaguar_output_file>
/Users/pwalters/jag_diphenylamine_opt_B3LYP-D3_6-31Gss/jag_diphenylamine_opt_B3LYP-D3_6-31Gss.out

> <s_j_Jaguar_log_file>
/Users/pwalters/jag_diphenylamine_opt_B3LYP-D3_6-31Gss/jag_diphenylamine_opt_B3LYP-D3_6-31Gss.log

> <s_j_Jaguar_mae_file>
/Users/pwalters/jag_diphenylamine_opt_B3LYP-D3_6-31Gss/jag_diphenylamine_opt_B3LYP-D3_6-31Gss.mae

> <s_j_QM_Method>
DFT(b3lyp-d3)

> <s_j_QM_Basis>
6-31g**

> <i_j_Number_of_canonical_orbitals>
248

> <i_j_Geometry_convergence_category>
0

> <r_j_Gas_Phase_Energy>
-518.68815247449

> <r_j_Final_Energy>
-518.68815247449

> <r_j_HOMO>
-0.187373999149485

> <r_j_LUMO>
-0.00515474388665671

> <s_m_job_name>
jag_diphenylamine_opt_B3LYP-D3_6-31Gss

$$$$
diphenyl_ether
                    3D
 Schrodinger Suite 2021-3.
 23 24  0  0  1  0            999 V2000
    1.0588   -0.6240    0.1957 O   0  0  0  0  0  0
    1.0719    0.7497    0.0506 C   0  0  0  0  0  0
    2.0860    1.4396    0.7148 C   0  0  0  0  0  0
    2.1943    2.8201    0.5546 C   0  0  0  0  0  0
    1.2922    3.5106   -0.2565 C   0  0  0  0  0  0
    0.2828    2.8081   -0.9171 C   0  0  0  0  0  0
    0.1681    1.4263   -0.7735 C   0  0  0  0  0  0
   -0.1449   -1.2971    0.2756 C   0  0  0  0  0  0
   -1.2350   -0.8019    0.9970 C   0  0  0  0  0  0
   -2.3967   -1.5675    1.0832 C   0  0  0  0  0  0
   -2.4718   -2.8182    0.4675 C   0  0  0  0  0  0
   -1.3715   -3.3044   -0.2405 C   0  0  0  0  0  0
   -0.2066   -2.5456   -0.3430 C   0  0  0  0  0  0
    2.7714    0.8819    1.3441 H   0  0  0  0  0  0
    2.9829    3.3578    1.0729 H   0  0  0  0  0  0
    1.3752    4.5867   -0.3741 H   0  0  0  0  0  0
   -0.4196    3.3361   -1.5556 H   0  0  0  0  0  0
   -0.6110    0.8737   -1.2871 H   0  0  0  0  0  0
   -1.1682    0.1685    1.4764 H   0  0  0  0  0  0
   -3.2456   -1.1840    1.6419 H   0  0  0  0  0  0
   -3.3800   -3.4086    0.5401 H   0  0  0  0  0  0
   -1.4203   -4.2761   -0.7233 H   0  0  0  0  0  0
    0.6593   -2.8997   -0.8921 H   0  0  0  0  0  0
  1  2  1  0  0  0
  1  8  1  0  0  0
  2  3  2  0  0  0
  2  7  1  0  0  0
  3  4  1  0  0  0
  3 14  1  0  0  0
  4  5  2  0  0  0
  4 15  1  0  0  0
  5  6  1  0  0  0
  5 16  1  0  0  0
  6  7  2  0  0  0
  6 17  1  0  0  0
  7 18  1  0  0  0
  8  9  2  0  0  0
  8 13  1  0  0  0
  9 10  1  0  0  0
  9 19  1  0  0  0
 10 11  2  0  0  0
 10 20  1  0  0  0
 11 12  1  0  0  0
 11 21  1  0  0  0
 12 13  2  0  0  0
 12 22  1  0  0  0
 13 23  1  0  0  0
M  END
> <s_m_entry_id>
25

> <s_m_entry_name>
polyaromatic.7

> <Name>
diphenyl_ether

> <s_m_Source_Path>
/Users/pwalters/modsource/python/rdkit/symmetry_sigma

> <s_m_Source_File>
polyaromatic.sdf

> <i_m_Source_File_Index>
7

> <i_m_Spin_multiplicity>
1

> <s_j_Task>
Optimization

> <s_j_Jaguar_input_file>
/Users/pwalters/jag_diphenyl_ether_opt_B3LYP-D3_6-31Gss/jag_diphenyl_ether_opt_B3LYP-D3_6-31Gss.in

> <s_j_Jaguar_restart_input_file>
/Users/pwalters/jag_diphenyl_ether_opt_B3LYP-D3_6-31Gss/jag_diphenyl_ether_opt_B3LYP-D3_6-31Gss.01.in

> <s_j_Jaguar_restart_mae_file>
/Users/pwalters/jag_diphenyl_ether_opt_B3LYP-D3_6-31Gss/jag_diphenyl_ether_opt_B3LYP-D3_6-31Gss.01.mae

> <s_j_Jaguar_output_file>
/Users/pwalters/jag_diphenyl_ether_opt_B3LYP-D3_6-31Gss/jag_diphenyl_ether_opt_B3LYP-D3_6-31Gss.out

> <s_j_Jaguar_log_file>
/Users/pwalters/jag_diphenyl_ether_opt_B3LYP-D3_6-31Gss/jag_diphenyl_ether_opt_B3LYP-D3_6-31Gss.log

> <s_j_Jaguar_mae_file>
/Users/pwalters/jag_diphenyl_ether_opt_B3LYP-D3_6-31Gss/jag_diphenyl_ether_opt_B3LYP-D3_6-31Gss.mae

> <s_j_QM_Method>
DFT(b3lyp-d3)

> <s_j_QM_Basis>
6-31g**

> <i_j_Number_of_canonical_orbitals>
243

> <i_j_Geometry_convergence_category>
0

> <r_j_Gas_Phase_Energy>
-538.544864812705

> <r_j_Final_Energy>
-538.544864812705

> <r_j_HOMO>
-0.216521191243895

> <r_j_LUMO>
-0.00971650712056994

> <s_m_job_name>
jag_diphenyl_ether_opt_B3LYP-D3_6-31Gss

$$$$
diphenyl_sulphide
                    3D
 Schrodinger Suite 2021-3.
 23 24  0  0  1  0            999 V2000
    1.5536   -0.9221    0.5920 S   0  0  0  0  0  0
    1.3280    0.8330    0.2970 C   0  0  0  0  0  0
    2.1408    1.7319    0.9972 C   0  0  0  0  0  0
    2.0440    3.1011    0.7454 C   0  0  0  0  0  0
    1.1240    3.5826   -0.1852 C   0  0  0  0  0  0
    0.3064    2.6849   -0.8760 C   0  0  0  0  0  0
    0.4122    1.3150   -0.6483 C   0  0  0  0  0  0
   -0.1317   -1.5357    0.6174 C   0  0  0  0  0  0
   -1.1457   -0.8815    1.3306 C   0  0  0  0  0  0
   -2.4299   -1.4195    1.3617 C   0  0  0  0  0  0
   -2.7097   -2.6212    0.7059 C   0  0  0  0  0  0
   -1.6972   -3.2780    0.0078 C   0  0  0  0  0  0
   -0.4130   -2.7341   -0.0483 C   0  0  0  0  0  0
    2.8388    1.3601    1.7410 H   0  0  0  0  0  0
    2.6791    3.7918    1.2926 H   0  0  0  0  0  0
    1.0422    4.6493   -0.3710 H   0  0  0  0  0  0
   -0.4113    3.0517   -1.6044 H   0  0  0  0  0  0
   -0.2181    0.6187   -1.1916 H   0  0  0  0  0  0
   -0.9274    0.0475    1.8470 H   0  0  0  0  0  0
   -3.2129   -0.9032    1.9097 H   0  0  0  0  0  0
   -3.7110   -3.0400    0.7387 H   0  0  0  0  0  0
   -1.9072   -4.2091   -0.5108 H   0  0  0  0  0  0
    0.3687   -3.2321   -0.6136 H   0  0  0  0  0  0
  1  2  1  0  0  0
  1  8  1  0  0  0
  2  3  2  0  0  0
  2  7  1  0  0  0
  3  4  1  0  0  0
  3 14  1  0  0  0
  4  5  2  0  0  0
  4 15  1  0  0  0
  5  6  1  0  0  0
  5 16  1  0  0  0
  6  7  2  0  0  0
  6 17  1  0  0  0
  7 18  1  0  0  0
  8  9  2  0  0  0
  8 13  1  0  0  0
  9 10  1  0  0  0
  9 19  1  0  0  0
 10 11  2  0  0  0
 10 20  1  0  0  0
 11 12  1  0  0  0
 11 21  1  0  0  0
 12 13  2  0  0  0
 12 22  1  0  0  0
 13 23  1  0  0  0
M  END
> <s_m_entry_id>
26

> <s_m_entry_name>
polyaromatic.8

> <Name>
diphenyl_sulphide

> <s_m_Source_Path>
/Users/pwalters/modsource/python/rdkit/symmetry_sigma

> <s_m_Source_File>
polyaromatic.sdf

> <i_m_Source_File_Index>
8

> <i_m_Spin_multiplicity>
1

> <s_j_Task>
Optimization

> <s_j_Jaguar_input_file>
/Users/pwalters/jag_diphenyl_sulphide_opt_B3LYP-D3_6-31Gss/jag_diphenyl_sulphide_opt_B3LYP-D3_6-31Gss.in

> <s_j_Jaguar_restart_input_file>
/Users/pwalters/jag_diphenyl_sulphide_opt_B3LYP-D3_6-31Gss/jag_diphenyl_sulphide_opt_B3LYP-D3_6-31Gss.01.in

> <s_j_Jaguar_restart_mae_file>
/Users/pwalters/jag_diphenyl_sulphide_opt_B3LYP-D3_6-31Gss/jag_diphenyl_sulphide_opt_B3LYP-D3_6-31Gss.01.mae

> <s_j_Jaguar_output_file>
/Users/pwalters/jag_diphenyl_sulphide_opt_B3LYP-D3_6-31Gss/jag_diphenyl_sulphide_opt_B3LYP-D3_6-31Gss.out

> <s_j_Jaguar_log_file>
/Users/pwalters/jag_diphenyl_sulphide_opt_B3LYP-D3_6-31Gss/jag_diphenyl_sulphide_opt_B3LYP-D3_6-31Gss.log

> <s_j_Jaguar_mae_file>
/Users/pwalters/jag_diphenyl_sulphide_opt_B3LYP-D3_6-31Gss/jag_diphenyl_sulphide_opt_B3LYP-D3_6-31Gss.mae

> <s_j_QM_Method>
DFT(b3lyp-d3)

> <s_j_QM_Basis>
6-31g**

> <i_j_Number_of_canonical_orbitals>
248

> <i_j_Geometry_convergence_category>
1

> <r_j_Gas_Phase_Energy>
-861.518930891988

> <r_j_Final_Energy>
-861.518930891988

> <r_j_HOMO>
-0.20790269003282

> <r_j_LUMO>
-0.0184622067634086

> <s_m_job_name>
jag_diphenyl_sulphide_opt_B3LYP-D3_6-31Gss

$$$$
